EV_data/123Bus/ieee123_VLN_Node.Txt

LINE-GROUND and LINE-LINE VOLTAGES BY BUS & NODE

Bus  Node    VLN (kV)   Angle      pu     Base kV    Node-Node   VLL (kV)  Angle      pu

150  1       2.4258 /_    0.0      1.01     4.160        1-2     4.2016 /_   30.0      1.01
   - 2       2.4258 /_ -120.0      1.01     4.160        2-3     4.2016 /_  -90.0      1.01
   - 3       2.4258 /_  120.0      1.01     4.160        3-1     4.2016 /_  150.0      1.01
150R 1       2.4258 /_    0.0      1.01     4.160        1-2     4.2015 /_   30.0      1.01
   - 2       2.4258 /_ -120.0      1.01     4.160        2-3     4.2016 /_  -90.0      1.01
   - 3       2.4258 /_  120.0      1.01     4.160        3-1     4.2016 /_  150.0      1.01
149  1       2.4258 /_    0.0      1.01     4.160        1-2     4.2015 /_   30.0      1.01
   - 2       2.4258 /_ -120.0      1.01     4.160        2-3     4.2016 /_  -90.0      1.01
   - 3       2.4258 /_  120.0      1.01     4.160        3-1     4.2016 /_  150.0      1.01
1 .. 1       2.3936 /_   -0.7    0.9966     4.160        1-2     4.1632 /_   29.7    1.0008
   - 2       2.4218 /_ -120.3    1.0083     4.160        2-3     4.1791 /_  -90.5    1.0046
   - 3        2.403 /_  119.6    1.0005     4.160        3-1     4.1604 /_  149.4    1.0001
2 .. 2       2.4213 /_ -120.3    1.0081     4.160
3 .. 3       2.3991 /_  119.6   0.99887     4.160
7 .. 1       2.3697 /_   -1.2   0.98664     4.160        1-2     4.1354 /_   29.5   0.99409
   - 2       2.4191 /_ -120.6    1.0072     4.160        2-3     4.1634 /_  -90.8    1.0008
   - 3       2.3882 /_  119.4   0.99436     4.160        3-1      4.132 /_  149.0   0.99328
4 .. 3       2.3978 /_  119.6   0.99834     4.160
5 .. 3        2.396 /_  119.6   0.99759     4.160
6 .. 3       2.3944 /_  119.6   0.99693     4.160
8 .. 1       2.3542 /_   -1.5   0.98017     4.160        1-2     4.1172 /_   29.3   0.98971
   - 2       2.4171 /_ -120.8    1.0064     4.160        2-3      4.153 /_  -91.0   0.99831
   - 3       2.3784 /_  119.2   0.99027     4.160        3-1     4.1134 /_  148.7   0.98879
12 . 2       2.4164 /_ -120.8    1.0061     4.160
9 .. 1       2.3506 /_   -1.5   0.97869     4.160
13 . 1       2.3334 /_   -1.9   0.97154     4.160        1-2     4.0918 /_   29.1   0.98359
   - 2       2.4133 /_ -121.0    1.0048     4.160        2-3     4.1375 /_  -91.4    0.9946
   - 3       2.3637 /_  119.0   0.98415     4.160        3-1     4.0863 /_  148.3   0.98227
9R . 1       2.3506 /_   -1.5   0.97869     4.160
14 . 1       2.3466 /_   -1.5   0.97704     4.160
34 . 3       2.3613 /_  118.9   0.98316     4.160
18 . 1       2.3097 /_   -2.4   0.96167     4.160        1-2     4.0606 /_   28.8   0.97612
   - 2       2.4059 /_ -121.3    1.0017     4.160        2-3     4.1108 /_  -91.6   0.98817
   - 3       2.3454 /_  118.9   0.97652     4.160        3-1     4.0582 /_  148.0   0.97552
11 . 1       2.3451 /_   -1.6   0.97639     4.160
10 . 1       2.3458 /_   -1.6   0.97671     4.160
15 . 3       2.3604 /_  118.9   0.98276     4.160
16 . 3        2.358 /_  118.9   0.98176     4.160
17 . 3       2.3592 /_  118.9   0.98229     4.160
19 . 1       2.3065 /_   -2.4   0.96032     4.160
21 . 1       2.3085 /_   -2.5   0.96116     4.160        1-2     4.0585 /_   28.8   0.97561
   - 2        2.406 /_ -121.3    1.0018     4.160        2-3     4.1089 /_  -91.6   0.98773
   - 3       2.3425 /_  118.9   0.97531     4.160        3-1     4.0551 /_  148.0   0.97479
20 . 1       2.3044 /_   -2.5   0.95947     4.160
22 . 2       2.4027 /_ -121.3    1.0004     4.160
23 . 1       2.3076 /_   -2.5   0.96077     4.160        1-2      4.057 /_   28.8   0.97524
   - 2       2.4069 /_ -121.3    1.0021     4.160        2-3     4.1081 /_  -91.7   0.98752
   - 3       2.3397 /_  118.9   0.97416     4.160        3-1     4.0526 /_  148.0   0.97419
24 . 3       2.3361 /_  118.8   0.97267     4.160
25 . 1        2.306 /_   -2.6   0.96014     4.160        1-2     4.0552 /_   28.8   0.97481
   - 2        2.408 /_ -121.2    1.0026     4.160        2-3     4.1074 /_  -91.7   0.98735
   - 3       2.3375 /_  118.9   0.97326     4.160        3-1     4.0505 /_  147.9   0.97368
25R  1        2.306 /_   -2.6   0.96014     4.160
   - 3       2.3375 /_  118.9   0.97325     4.160        3-1     4.0505 /_  147.9   0.97368
26 . 1       2.3054 /_   -2.6   0.95989     4.160
   - 3       2.3363 /_  118.9   0.97275     4.160        3-1     4.0493 /_  147.9   0.97338
28 . 1       2.3052 /_   -2.6   0.95978     4.160        1-2     4.0543 /_   28.8    0.9746
   - 2       2.4085 /_ -121.2    1.0028     4.160        2-3     4.1071 /_  -91.7   0.98728
   - 3       2.3367 /_  118.9   0.97291     4.160        3-1     4.0497 /_  147.9   0.97348
27 . 1       2.3046 /_   -2.6   0.95953     4.160
   - 3       2.3362 /_  118.9   0.97272     4.160        3-1      4.049 /_  147.9   0.97332
31 . 3       2.3349 /_  118.9   0.97214     4.160
33 . 1       2.3014 /_   -2.6   0.95821     4.160
29 . 1       2.3048 /_   -2.6   0.95964     4.160        1-2     4.0537 /_   28.8   0.97446
   - 2       2.4088 /_ -121.2    1.0029     4.160        2-3     4.1067 /_  -91.7   0.98719
   - 3       2.3356 /_  118.9   0.97245     4.160        3-1     4.0487 /_  147.9   0.97324
30 . 1       2.3055 /_   -2.6   0.95991     4.160        1-2     4.0539 /_   28.8   0.97449
   - 2       2.4087 /_ -121.2    1.0029     4.160        2-3     4.1064 /_  -91.7   0.98712
   - 3       2.3345 /_  118.8   0.97198     4.160        3-1     4.0479 /_  147.9   0.97304
250  1       2.3055 /_   -2.6   0.95991     4.160        1-2     4.0539 /_   28.8   0.97449
   - 2       2.4087 /_ -121.2    1.0029     4.160        2-3     4.1064 /_  -91.7   0.98712
   - 3       2.3345 /_  118.8   0.97198     4.160        3-1     4.0479 /_  147.9   0.97304
32 . 3       2.3339 /_  118.8   0.97173     4.160
35 . 1        2.302 /_   -2.5   0.95847     4.160        1-2     4.0495 /_   28.8   0.97344
   - 2       2.4009 /_ -121.4   0.99963     4.160        2-3     4.1032 /_  -91.7   0.98635
   - 3       2.3426 /_  118.9   0.97538     4.160        3-1     4.0501 /_  147.9   0.97358
36 . 1       2.2999 /_   -2.5   0.95757     4.160        1-2     4.0472 /_   28.7    0.9729
   - 2       2.3997 /_ -121.4   0.99913     4.160
40 . 1       2.2984 /_   -2.5   0.95695     4.160        1-2     4.0442 /_   28.7   0.97217
   - 2       2.3982 /_ -121.4   0.99849     4.160        2-3     4.0987 /_  -91.7   0.98526
   - 3       2.3401 /_  118.8   0.97433     4.160        3-1     4.0445 /_  147.8   0.97224
37 . 1        2.298 /_   -2.5   0.95681     4.160
38 . 2       2.3981 /_ -121.4   0.99848     4.160
39 . 2       2.3971 /_ -121.4   0.99805     4.160
41 . 3       2.3391 /_  118.8   0.97389     4.160
42 . 1       2.2945 /_   -2.6   0.95535     4.160        1-2     4.0389 /_   28.7    0.9709
   - 2       2.3955 /_ -121.5   0.99738     4.160        2-3     4.0942 /_  -91.7   0.98419
   - 3        2.338 /_  118.8   0.97344     4.160        3-1     4.0393 /_  147.8   0.97099
43 . 2       2.3923 /_ -121.5   0.99606     4.160
44 . 1       2.2919 /_   -2.6   0.95426     4.160        1-2     4.0351 /_   28.7   0.96999
   - 2       2.3938 /_ -121.5   0.99667     4.160        2-3     4.0911 /_  -91.8   0.98344
   - 3        2.336 /_  118.8   0.97262     4.160        3-1     4.0353 /_  147.8   0.97002
45 . 1       2.2906 /_   -2.6   0.95372     4.160
47 . 1       2.2894 /_   -2.6   0.95323     4.160        1-2      4.031 /_   28.7   0.96899
   - 2       2.3912 /_ -121.5   0.99559     4.160        2-3     4.0872 /_  -91.8   0.98249
   - 3       2.3336 /_  118.7   0.97162     4.160        3-1     4.0305 /_  147.7   0.96887
46 . 1       2.2896 /_   -2.6   0.95331     4.160
48 . 1       2.2888 /_   -2.6   0.95296     4.160        1-2     4.0298 /_   28.6   0.96871
   - 2       2.3905 /_ -121.5    0.9953     4.160        2-3     4.0862 /_  -91.8   0.98226
   - 3       2.3331 /_  118.7   0.97141     4.160        3-1     4.0294 /_  147.7   0.96862
49 . 1       2.2888 /_   -2.6   0.95294     4.160        1-2     4.0292 /_   28.6   0.96857
   - 2       2.3898 /_ -121.5   0.99502     4.160        2-3     4.0857 /_  -91.8   0.98213
   - 3       2.3328 /_  118.7   0.97129     4.160        3-1     4.0288 /_  147.7   0.96847
50 . 1       2.2887 /_   -2.7   0.95292     4.160        1-2     4.0288 /_   28.6   0.96847
   - 2       2.3899 /_ -121.5   0.99505     4.160        2-3     4.0854 /_  -91.8   0.98208
   - 3        2.332 /_  118.7   0.97094     4.160        3-1      4.028 /_  147.7   0.96828
51 . 1       2.2883 /_   -2.7   0.95275     4.160        1-2     4.0285 /_   28.6   0.96839
   - 2       2.3901 /_ -121.5   0.99513     4.160        2-3     4.0854 /_  -91.8   0.98208
   - 3       2.3319 /_  118.7   0.97093     4.160        3-1     4.0279 /_  147.7   0.96825
151  1       2.2883 /_   -2.7   0.95275     4.160        1-2     4.0285 /_   28.6   0.96839
   - 2       2.3901 /_ -121.5   0.99513     4.160        2-3     4.0854 /_  -91.8   0.98208
   - 3       2.3319 /_  118.7   0.97093     4.160        3-1     4.0279 /_  147.7   0.96825
52 . 1        2.318 /_   -2.3   0.96512     4.160        1-2     4.0739 /_   28.9   0.97929
   - 2        2.411 /_ -121.3    1.0038     4.160        2-3     4.1275 /_  -91.7   0.99218
   - 3       2.3548 /_  118.7   0.98043     4.160        3-1      4.068 /_  147.9   0.97788
53 . 1        2.311 /_   -2.5    0.9622     4.160        1-2     4.0654 /_   28.8   0.97726
   - 2       2.4095 /_ -121.4    1.0032     4.160        2-3     4.1224 /_  -91.8   0.99095
   - 3       2.3504 /_  118.6   0.97859     4.160        3-1     4.0591 /_  147.8   0.97575
54 . 1        2.307 /_   -2.6   0.96054     4.160        1-2     4.0604 /_   28.7   0.97606
   - 2       2.4083 /_ -121.5    1.0027     4.160        2-3     4.1192 /_  -91.9   0.99018
   - 3       2.3476 /_  118.5   0.97746     4.160        3-1     4.0537 /_  147.7   0.97445
55 . 1       2.3065 /_   -2.6   0.96034     4.160        1-2       4.06 /_   28.7   0.97596
   - 2       2.4082 /_ -121.5    1.0027     4.160        2-3     4.1189 /_  -91.9   0.99011
   - 3       2.3478 /_  118.5   0.97754     4.160        3-1     4.0535 /_  147.7   0.97441
57 . 1       2.2987 /_   -2.9   0.95709     4.160        1-2     4.0459 /_   28.4   0.97258
   - 2       2.4022 /_ -121.7    1.0002     4.160        2-3     4.1076 /_  -92.1   0.98739
   - 3       2.3405 /_  118.3   0.97447     4.160        3-1     4.0422 /_  147.4   0.97168
56 . 1       2.3064 /_   -2.6   0.96031     4.160        1-2     4.0599 /_   28.7   0.97593
   - 2       2.4077 /_ -121.5    1.0025     4.160        2-3     4.1185 /_  -91.9   0.99003
   - 3        2.348 /_  118.5   0.97762     4.160        3-1     4.0535 /_  147.7    0.9744
58 . 2       2.4006 /_ -121.7   0.99951     4.160
60 . 1       2.2814 /_   -3.6   0.94987     4.160        1-2     4.0158 /_   28.0   0.96534
   - 2       2.3915 /_ -122.1    0.9957     4.160        2-3     4.0846 /_  -92.6   0.98188
   - 3       2.3238 /_  117.9   0.96753     4.160        3-1     4.0176 /_  146.8   0.96576
59 . 2       2.3998 /_ -121.7   0.99918     4.160
61 . 1       2.2814 /_   -3.6   0.94987     4.160        1-2     4.0158 /_   28.0   0.96534
   - 2       2.3915 /_ -122.1    0.9957     4.160        2-3     4.0846 /_  -92.6   0.98188
   - 3       2.3238 /_  117.9   0.96753     4.160        3-1     4.0176 /_  146.8   0.96576
62 . 1       2.2801 /_   -3.6   0.94935     4.160        1-2     4.0116 /_   28.0   0.96434
   - 2        2.389 /_ -122.1   0.99469     4.160        2-3     4.0783 /_  -92.6   0.98036
   - 3        2.318 /_  117.9   0.96513     4.160        3-1     4.0116 /_  146.9   0.96433
63 . 1       2.2791 /_   -3.6   0.94892     4.160        1-2     4.0087 /_   28.0   0.96364
   - 2       2.3871 /_ -122.0    0.9939     4.160        2-3     4.0745 /_  -92.6   0.97944
   - 3        2.315 /_  117.9   0.96387     4.160        3-1     4.0081 /_  146.9   0.96348
64 . 1       2.2793 /_   -3.6   0.94899     4.160        1-2     4.0042 /_   28.0   0.96254
   - 2        2.383 /_ -122.0   0.99218     4.160        2-3     4.0667 /_  -92.6   0.97758
   - 3       2.3086 /_  117.8   0.96119     4.160        3-1     4.0023 /_  146.9   0.96208
65 . 1       2.2787 /_   -3.7   0.94877     4.160        1-2     4.0013 /_   28.0   0.96186
   - 2       2.3827 /_ -121.9   0.99205     4.160        2-3     4.0599 /_  -92.6   0.97595
   - 3       2.2998 /_  117.8   0.95756     4.160        3-1     3.9952 /_  146.9   0.96039
66 . 1       2.2793 /_   -3.7   0.94902     4.160        1-2     4.0012 /_   28.0   0.96183
   - 2       2.3833 /_ -121.9    0.9923     4.160        2-3     4.0578 /_  -92.6   0.97544
   - 3       2.2961 /_  117.8   0.95599     4.160        3-1     3.9929 /_  147.0   0.95983
67 . 1       2.2749 /_   -3.9   0.94717     4.160        1-2     4.0073 /_   27.8   0.96329
   - 2         2.39 /_ -122.3   0.99509     4.160        2-3      4.077 /_  -92.8   0.98005
   - 3       2.3182 /_  117.7   0.96518     4.160        3-1       4.01 /_  146.6   0.96395
68 . 1       2.2709 /_   -3.9   0.94552     4.160
72 . 1       2.2746 /_   -4.0   0.94703     4.160        1-2     4.0057 /_   27.6   0.96292
   - 2       2.3884 /_ -122.4   0.99445     4.160        2-3      4.075 /_  -92.9   0.97956
   - 3       2.3173 /_  117.6   0.96483     4.160        3-1     4.0089 /_  146.5   0.96367
97 . 1       2.2724 /_   -3.9   0.94615     4.160        1-2     4.0034 /_   27.7   0.96235
   - 2       2.3887 /_ -122.3   0.99456     4.160        2-3     4.0743 /_  -92.8    0.9794
   - 3       2.3164 /_  117.7   0.96444     4.160        3-1      4.007 /_  146.6   0.96323
69 . 1       2.2664 /_   -4.0   0.94363     4.160
70 . 1       2.2632 /_   -4.0   0.94229     4.160
71 . 1       2.2614 /_   -4.0   0.94154     4.160
73 . 3        2.312 /_  117.6   0.96263     4.160
76 . 1       2.2734 /_   -4.1   0.94655     4.160        1-2     4.0048 /_   27.6   0.96269
   - 2       2.3876 /_ -122.5   0.99411     4.160        2-3     4.0741 /_  -92.9   0.97935
   - 3       2.3186 /_  117.6   0.96537     4.160        3-1     4.0095 /_  146.4   0.96383
74 . 3       2.3076 /_  117.5   0.96079     4.160
75 . 3        2.305 /_  117.5   0.95969     4.160
77 . 1       2.2758 /_   -4.1   0.94754     4.160        1-2     4.0094 /_   27.5   0.96379
   - 2       2.3902 /_ -122.6   0.99518     4.160        2-3     4.0778 /_  -93.0   0.98024
   - 3       2.3204 /_  117.5   0.96612     4.160        3-1     4.0129 /_  146.4   0.96465
86 . 1       2.2708 /_   -4.1   0.94545     4.160        1-2     4.0016 /_   27.4   0.96193
   - 2       2.3833 /_ -122.7    0.9923     4.160        2-3     4.0702 /_  -93.0   0.97842
   - 3       2.3219 /_  117.6   0.96674     4.160        3-1     4.0102 /_  146.4   0.96399
78 . 1       2.2764 /_   -4.2    0.9478     4.160        1-2     4.0106 /_   27.5   0.96409
   - 2       2.3912 /_ -122.6   0.99558     4.160        2-3      4.079 /_  -93.1   0.98053
   - 3       2.3207 /_  117.5   0.96625     4.160        3-1     4.0138 /_  146.4   0.96485
79 . 1       2.2757 /_   -4.2   0.94752     4.160        1-2     4.0101 /_   27.5   0.96396
   - 2       2.3915 /_ -122.6   0.99571     4.160        2-3     4.0789 /_  -93.1   0.98051
   - 3       2.3206 /_  117.5   0.96621     4.160        3-1     4.0136 /_  146.4    0.9648
80 . 1       2.2808 /_   -4.2   0.94964     4.160        1-2     4.0177 /_   27.4    0.9658
   - 2       2.3951 /_ -122.7   0.99723     4.160        2-3     4.0848 /_  -93.2   0.98192
   - 3       2.3223 /_  117.4   0.96692     4.160        3-1     4.0182 /_  146.3   0.96592
81 . 1       2.2825 /_   -4.2   0.95034     4.160        1-2     4.0205 /_   27.4   0.96647
   - 2       2.3971 /_ -122.7   0.99806     4.160        2-3     4.0873 /_  -93.2   0.98253
   - 3       2.3227 /_  117.3   0.96706     4.160        3-1     4.0198 /_  146.3   0.96631
82 . 1       2.2842 /_   -4.3   0.95105     4.160        1-2     4.0244 /_   27.3    0.9674
   - 2       2.4001 /_ -122.7   0.99931     4.160        2-3     4.0914 /_  -93.2    0.9835
   - 3       2.3244 /_  117.3   0.96777     4.160        3-1      4.023 /_  146.2   0.96707
84 . 3        2.316 /_  117.3    0.9643     4.160
83 . 1       2.2867 /_   -4.3    0.9521     4.160        1-2      4.029 /_   27.3    0.9685
   - 2       2.4028 /_ -122.7    1.0004     4.160        2-3     4.0955 /_  -93.3   0.98449
   - 3       2.3262 /_  117.3   0.96853     4.160        3-1     4.0264 /_  146.2   0.96789
85 . 3       2.3129 /_  117.3     0.963     4.160
87 . 1       2.2692 /_   -4.1   0.94481     4.160        1-2          4 /_   27.4   0.96154
   - 2       2.3813 /_ -122.8   0.99149     4.160        2-3      4.068 /_  -93.0   0.97788
   - 3       2.3231 /_  117.5   0.96723     4.160        3-1     4.0101 /_  146.3   0.96396
88 . 1       2.2689 /_   -4.2   0.94469     4.160
89 . 1       2.2682 /_   -4.1   0.94437     4.160        1-2     3.9996 /_   27.4   0.96144
   - 2       2.3807 /_ -122.8   0.99121     4.160        2-3     4.0674 /_  -93.0   0.97774
   - 3       2.3239 /_  117.5   0.96758     4.160        3-1     4.0096 /_  146.3   0.96384
90 . 2       2.3804 /_ -122.9    0.9911     4.160
91 . 1       2.2677 /_   -4.1   0.94416     4.160        1-2     3.9988 /_   27.3   0.96125
   - 2       2.3799 /_ -122.8   0.99089     4.160        2-3     4.0671 /_  -93.1   0.97768
   - 3       2.3243 /_  117.5   0.96775     4.160        3-1     4.0092 /_  146.3   0.96374
92 . 3       2.3239 /_  117.5   0.96757     4.160
93 . 1       2.2669 /_   -4.1   0.94382     4.160        1-2      3.998 /_   27.3   0.96105
   - 2       2.3795 /_ -122.8   0.99073     4.160        2-3     4.0665 /_  -93.1   0.97752
   - 3       2.3246 /_  117.5   0.96785     4.160        3-1      4.009 /_  146.3   0.96369
94 . 1        2.265 /_   -4.1   0.94307     4.160
95 . 1       2.2668 /_   -4.1   0.94378     4.160        1-2     3.9977 /_   27.3   0.96098
   - 2       2.3786 /_ -122.9   0.99033     4.160        2-3     4.0657 /_  -93.1   0.97734
   - 3        2.325 /_  117.5   0.96804     4.160        3-1      4.009 /_  146.3    0.9637
96 . 2       2.3779 /_ -122.9   0.99007     4.160
98 . 1       2.2718 /_   -4.0    0.9459     4.160        1-2     4.0023 /_   27.7   0.96209
   - 2       2.3881 /_ -122.3   0.99431     4.160        2-3     4.0734 /_  -92.8   0.97918
   - 3        2.316 /_  117.7   0.96427     4.160        3-1     4.0062 /_  146.6   0.96304
99 . 1       2.2725 /_   -3.9   0.94616     4.160        1-2     4.0017 /_   27.7   0.96194
   - 2       2.3861 /_ -122.3   0.99347     4.160        2-3     4.0716 /_  -92.8   0.97875
   - 3       2.3153 /_  117.7   0.96399     4.160        3-1     4.0051 /_  146.6   0.96277
100  1       2.2729 /_   -3.9   0.94635     4.160        1-2     4.0016 /_   27.7   0.96192
   - 2       2.3859 /_ -122.3   0.99341     4.160        2-3     4.0713 /_  -92.8   0.97869
   - 3       2.3144 /_  117.7   0.96361     4.160        3-1     4.0044 /_  146.6   0.96261
450  1       2.2729 /_   -3.9   0.94635     4.160        1-2     4.0016 /_   27.7   0.96192
   - 2       2.3859 /_ -122.3   0.99341     4.160        2-3     4.0713 /_  -92.8   0.97869
   - 3       2.3144 /_  117.7   0.96361     4.160        3-1     4.0044 /_  146.6   0.96261
197  1       2.2724 /_   -3.9   0.94615     4.160        1-2     4.0034 /_   27.7   0.96235
   - 2       2.3887 /_ -122.3   0.99456     4.160        2-3     4.0743 /_  -92.8    0.9794
   - 3       2.3164 /_  117.7   0.96444     4.160        3-1      4.007 /_  146.6   0.96323
101  1       2.2705 /_   -4.0   0.94534     4.160        1-2     4.0005 /_   27.7   0.96165
   - 2        2.388 /_ -122.3   0.99426     4.160        2-3     4.0724 /_  -92.8   0.97895
   - 3        2.315 /_  117.7   0.96386     4.160        3-1     4.0048 /_  146.5   0.96269
102  3       2.3113 /_  117.7   0.96232     4.160
105  1       2.2673 /_   -4.0     0.944     4.160        1-2     3.9974 /_   27.7   0.96092
   - 2       2.3876 /_ -122.4   0.99409     4.160        2-3     4.0711 /_  -92.8   0.97862
   - 3       2.3157 /_  117.7   0.96415     4.160        3-1     4.0041 /_  146.5   0.96252
103  3        2.307 /_  117.6   0.96054     4.160
104  3       2.3024 /_  117.6   0.95862     4.160
106  2       2.3847 /_ -122.4   0.99289     4.160
108  1       2.2637 /_   -4.1   0.94251     4.160        1-2     3.9944 /_   27.7    0.9602
   - 2       2.3891 /_ -122.4   0.99474     4.160        2-3     4.0709 /_  -92.8   0.97859
   - 3       2.3153 /_  117.8   0.96401     4.160        3-1      4.003 /_  146.5   0.96226
107  2        2.381 /_ -122.4   0.99137     4.160
109  1       2.2537 /_   -4.2   0.93836     4.160
300  1       2.2637 /_   -4.1   0.94251     4.160        1-2     3.9944 /_   27.7    0.9602
   - 2       2.3891 /_ -122.4   0.99474     4.160        2-3     4.0709 /_  -92.8   0.97859
   - 3       2.3153 /_  117.8   0.96401     4.160        3-1      4.003 /_  146.5   0.96226
110  1       2.2491 /_   -4.2   0.93642     4.160
111  1       2.2472 /_   -4.3   0.93564     4.160
112  1       2.2475 /_   -4.3   0.93578     4.160
113  1       2.2427 /_   -4.3   0.93378     4.160
114  1       2.2417 /_   -4.3   0.93333     4.160
135  1       2.3097 /_   -2.4   0.96167     4.160        1-2     4.0606 /_   28.8   0.97612
   - 2       2.4059 /_ -121.3    1.0017     4.160        2-3     4.1108 /_  -91.6   0.98817
   - 3       2.3454 /_  118.9   0.97652     4.160        3-1     4.0582 /_  148.0   0.97552
152  1       2.3334 /_   -1.9   0.97154     4.160        1-2     4.0917 /_   29.1   0.98359
   - 2       2.4133 /_ -121.0    1.0048     4.160        2-3     4.1375 /_  -91.4    0.9946
   - 3       2.3637 /_  119.0   0.98415     4.160        3-1     4.0863 /_  148.3   0.98227
160R 1       2.2814 /_   -3.6   0.94987     4.160        1-2     4.0158 /_   28.0   0.96533
   - 2       2.3915 /_ -122.1    0.9957     4.160        2-3     4.0846 /_  -92.6   0.98188
   - 3       2.3238 /_  117.9   0.96753     4.160        3-1     4.0176 /_  146.8   0.96576
160  1       2.2814 /_   -3.6   0.94987     4.160        1-2     4.0158 /_   28.0   0.96534
   - 2       2.3915 /_ -122.1    0.9957     4.160        2-3     4.0846 /_  -92.6   0.98188
   - 3       2.3238 /_  117.9   0.96753     4.160        3-1     4.0176 /_  146.8   0.96576
61S  1       2.2814 /_   -3.6   0.94987     4.160        1-2     4.0158 /_   28.0   0.96534
   - 2       2.3915 /_ -122.1    0.9957     4.160        2-3     4.0846 /_  -92.6   0.98188
   - 3       2.3238 /_  117.9   0.96753     4.160        3-1     4.0176 /_  146.8   0.96576
610  1      0.26324 /_   -3.6   0.94987     0.480        1-2    0.46336 /_   28.0   0.96534
   - 2      0.27594 /_ -122.1    0.9957     0.480        2-3     0.4713 /_  -92.6   0.98188
   - 3      0.26813 /_  117.9   0.96753     0.480        3-1    0.46356 /_  146.8   0.96576
